# generated using pymatgen
data_Ag2H10C7(N2O)4
_symmetry_space_group_name_H-M   R-3m
_cell_length_a   22.17318243
_cell_length_b   22.17318243
_cell_length_c   16.98033986
_cell_angle_alpha   90.00000000
_cell_angle_beta   90.00000000
_cell_angle_gamma   120.00000000
_symmetry_Int_Tables_number   166
_chemical_formula_structural   Ag2H10C7(N2O)4
_chemical_formula_sum   'Ag36 H180 C126 N144 O72'
_cell_volume   7229.91298867
_cell_formula_units_Z   18
loop_
 _symmetry_equiv_pos_site_id
 _symmetry_equiv_pos_as_xyz
  1  'x, y, z'
  2  '-x, -y, -z'
  3  '-y, x-y, z'
  4  'y, -x+y, -z'
  5  '-x+y, -x, z'
  6  'x-y, x, -z'
  7  'y, x, -z'
  8  '-y, -x, z'
  9  'x-y, -y, -z'
  10  '-x+y, y, z'
  11  '-x, -x+y, -z'
  12  'x, x-y, z'
  13  'x+2/3, y+1/3, z+1/3'
  14  '-x+2/3, -y+1/3, -z+1/3'
  15  '-y+2/3, x-y+1/3, z+1/3'
  16  'y+2/3, -x+y+1/3, -z+1/3'
  17  '-x+y+2/3, -x+1/3, z+1/3'
  18  'x-y+2/3, x+1/3, -z+1/3'
  19  'y+2/3, x+1/3, -z+1/3'
  20  '-y+2/3, -x+1/3, z+1/3'
  21  'x-y+2/3, -y+1/3, -z+1/3'
  22  '-x+y+2/3, y+1/3, z+1/3'
  23  '-x+2/3, -x+y+1/3, -z+1/3'
  24  'x+2/3, x-y+1/3, z+1/3'
  25  'x+1/3, y+2/3, z+2/3'
  26  '-x+1/3, -y+2/3, -z+2/3'
  27  '-y+1/3, x-y+2/3, z+2/3'
  28  'y+1/3, -x+y+2/3, -z+2/3'
  29  '-x+y+1/3, -x+2/3, z+2/3'
  30  'x-y+1/3, x+2/3, -z+2/3'
  31  'y+1/3, x+2/3, -z+2/3'
  32  '-y+1/3, -x+2/3, z+2/3'
  33  'x-y+1/3, -y+2/3, -z+2/3'
  34  '-x+y+1/3, y+2/3, z+2/3'
  35  '-x+1/3, -x+y+2/3, -z+2/3'
  36  'x+1/3, x-y+2/3, z+2/3'
loop_
 _atom_site_type_symbol
 _atom_site_label
 _atom_site_symmetry_multiplicity
 _atom_site_fract_x
 _atom_site_fract_y
 _atom_site_fract_z
 _atom_site_occupancy
  Ag  Ag0  18  0.00000000  0.27445857  0.00000000  1
  Ag  Ag1  18  0.08728960  0.17457920  0.70166607  1
  H  H2  36  0.01418654  0.27341841  0.16579261  1
  H  H3  36  0.01501259  0.23964930  0.74656777  1
  H  H4  36  0.02419070  0.47248413  0.72758088  1
  H  H5  36  0.04288913  0.16647004  0.35473543  1
  H  H6  36  0.04427283  0.19326520  0.48730781  1
  C  C7  36  0.01790143  0.24671397  0.57323858  1
  C  C8  36  0.07295761  0.25083530  0.84561270  1
  C  C9  18  0.00000000  0.20110330  0.50000000  1
  C  C10  18  0.03495096  0.06990192  0.35425991  1
  C  C11  18  0.05669019  0.52834510  0.62564342  1
  N  N12  36  0.01772652  0.24464481  0.80689903  1
  N  N13  36  0.06455478  0.47839111  0.58923582  1
  N  N14  18  0.03599172  0.07198344  0.64599098  1
  N  N15  18  0.03997134  0.51998567  0.70204205  1
  N  N16  18  0.06958479  0.13916957  0.35391415  1
  N  N17  18  0.09446872  0.54723436  0.47242210  1
  O  O18  36  0.00195857  0.21653014  0.63998922  1
  O  O19  36  0.02098024  0.40485653  0.22979562  1
