# generated using pymatgen
data_CdH8C14(SN3)2
_symmetry_space_group_name_H-M   P2_1/c
_cell_length_a   5.67308267
_cell_length_b   17.73132708
_cell_length_c   8.52672766
_cell_angle_alpha   90.00000000
_cell_angle_beta   105.90132259
_cell_angle_gamma   90.00000000
_symmetry_Int_Tables_number   14
_chemical_formula_structural   CdH8C14(SN3)2
_chemical_formula_sum   'Cd2 H16 C28 S4 N12'
_cell_volume   824.89402978
_cell_formula_units_Z   2
loop_
 _symmetry_equiv_pos_site_id
 _symmetry_equiv_pos_as_xyz
  1  'x, y, z'
  2  '-x, -y, -z'
  3  '-x, y+1/2, -z+1/2'
  4  'x, -y+1/2, z+1/2'
loop_
 _atom_site_type_symbol
 _atom_site_label
 _atom_site_symmetry_multiplicity
 _atom_site_fract_x
 _atom_site_fract_y
 _atom_site_fract_z
 _atom_site_occupancy
  Cd  Cd0  2  0.50000000  0.00000000  0.00000000  1
  H  H1  4  0.03568349  0.50590130  0.78230705  1
  H  H2  4  0.26635355  0.58699068  0.01378965  1
  H  H3  4  0.38723875  0.22505230  0.56570024  1
  H  H4  4  0.41184158  0.63834904  0.70692879  1
  C  C5  4  0.04159043  0.09166054  0.08583880  1
  C  C6  4  0.04421711  0.16190551  0.50693828  1
  C  C7  4  0.05141384  0.05463648  0.67923797  1
  C  C8  4  0.07664597  0.59972079  0.94940786  1
  C  C9  4  0.07922862  0.70978205  0.12415909  1
  C  C10  4  0.28769667  0.17673494  0.59375278  1
  C  C11  4  0.39998718  0.12857129  0.72071885  1
  S  S12  4  0.32793603  0.11234352  0.17038636  1
  N  N13  4  0.16664689  0.57693451  0.47678391  1
  N  N14  4  0.18042178  0.74831766  0.23255087  1
  N  N15  4  0.28531082  0.06842238  0.76226298  1
